Circuit: * Z:\home\nils\Projects\C#, C++\LED-Matrix\led-matrix\Schaltplan\Schaltplan.asc

Direct Newton iteration failed to find .op point.  (Use ".option noopiter" to skip.)
Starting Gmin stepping
Gmin = 10
Gmin = 1.07374
Gmin = 0.115292
Gmin = 0.0123794
Gmin = 0.00132923
Gmin = 0.000142725
Gmin = 1.5325e-005
Gmin = 1.6455e-006
Gmin = 1.76685e-007
Gmin = 1.89714e-008
Gmin = 2.03704e-009
Gmin = 2.18725e-010
Gmin = 2.34854e-011
Gmin = 2.52173e-012
Gmin = 2.70769e-013
Gmin = 0
Gmin stepping succeeded in finding the operating point.


Date: Thu Dec 05 19:41:23 2013
Total elapsed time: 0.504 seconds.

tnom = 27
temp = 27
method = modified trap
totiter = 2527
traniter = 2088
tranpoints = 1045
accept = 1045
rejected = 0
matrix size = 146
fillins = 184
solver = Normal
Thread vector: 66.8/37.1[4] 19.4/6.2[4] 7.0/3.3[4] 3.9/6.3[1]  2592/500
Matrix Compiler1: 28,0 KB object code size  9.2/8.2/[4.8]
Matrix Compiler2: 16,4 KB object code size  4.5/6.1/[3.6]


